<?xml version="1.0" encoding="UTF-8"?>

<!-- generated on Wed 15 Jun 2022 04:18:36 AM UTC by Eclipse SUMO netedit Version 1.1.0
<configuration xmlns:xsi="http://www.w3.org/2001/XMLSchema-instance" xsi:noNamespaceSchemaLocation="http://sumo.dlr.de/xsd/netconvertConfiguration.xsd">

    <input>
        <sumo-net-file value="/home/veins/map15_3/map15_3.net.xml"/>
    </input>

    <output>
        <output-file value="/home/veins/map15_3/map15_3.net.xml"/>
    </output>

    <processing>
        <geometry.max-grade.fix value="false"/>
        <offset.disable-normalization value="true"/>
        <lefthand value="false"/>
    </processing>

    <junctions>
        <no-turnarounds value="true"/>
        <junctions.corner-detail value="5"/>
        <junctions.limit-turn-speed value="5.5"/>
        <rectangular-lane-cut value="false"/>
    </junctions>

    <pedestrian>
        <walkingareas value="false"/>
    </pedestrian>

    <visualisation>
        <registry-viewport value="true"/>
    </visualisation>

</configuration>
-->

<net version="1.1" junctionCornerDetail="5" limitTurnSpeed="5.50" xmlns:xsi="http://www.w3.org/2001/XMLSchema-instance" xsi:noNamespaceSchemaLocation="http://sumo.dlr.de/xsd/net_file.xsd">

    <location netOffset="-780281.55,-338438.76" convBoundary="0.00,0.00,2068.59,933.37" origBoundary="101.521584,3.058952,101.540186,3.067521" projParameter="+proj=utm +zone=47 +ellps=WGS84 +datum=WGS84 +units=m +no_defs"/>

    <type id="highway.bridleway" priority="1" numLanes="1" speed="2.78" allow="pedestrian" oneway="1" width="2.00"/>
    <type id="highway.bus_guideway" priority="1" numLanes="1" speed="27.78" allow="bus" oneway="1"/>
    <type id="highway.cycleway" priority="1" numLanes="1" speed="8.33" allow="bicycle" oneway="0" width="1.00"/>
    <type id="highway.footway" priority="1" numLanes="1" speed="2.78" allow="pedestrian" oneway="1" width="2.00"/>
    <type id="highway.ford" priority="1" numLanes="1" speed="2.78" allow="army" oneway="0"/>
    <type id="highway.living_street" priority="3" numLanes="1" speed="2.78" disallow="tram rail_urban rail rail_electric ship" oneway="0"/>
    <type id="highway.motorway" priority="13" numLanes="2" speed="44.44" allow="private emergency authority army vip passenger hov taxi bus coach delivery truck trailer motorcycle evehicle custom1 custom2" oneway="1"/>
    <type id="highway.motorway_link" priority="12" numLanes="1" speed="22.22" allow="private emergency authority army vip passenger hov taxi bus coach delivery truck trailer motorcycle evehicle custom1 custom2" oneway="1"/>
    <type id="highway.path" priority="1" numLanes="1" speed="2.78" allow="bicycle pedestrian" oneway="1" width="2.00"/>
    <type id="highway.pedestrian" priority="1" numLanes="1" speed="2.78" allow="pedestrian" oneway="1" width="2.00"/>
    <type id="highway.primary" priority="9" numLanes="2" speed="27.78" disallow="tram rail_urban rail rail_electric ship" oneway="0"/>
    <type id="highway.primary_link" priority="8" numLanes="1" speed="22.22" disallow="tram rail_urban rail rail_electric ship" oneway="0"/>
    <type id="highway.raceway" priority="14" numLanes="2" speed="83.33" allow="vip" oneway="0"/>
    <type id="highway.residential" priority="4" numLanes="1" speed="13.89" disallow="tram rail_urban rail rail_electric ship" oneway="0"/>
    <type id="highway.secondary" priority="7" numLanes="2" speed="27.78" disallow="tram rail_urban rail rail_electric ship" oneway="0"/>
    <type id="highway.secondary_link" priority="6" numLanes="1" speed="22.22" disallow="tram rail_urban rail rail_electric ship" oneway="0"/>
    <type id="highway.service" priority="2" numLanes="1" speed="5.56" allow="delivery bicycle pedestrian" oneway="0"/>
    <type id="highway.stairs" priority="1" numLanes="1" speed="1.39" allow="pedestrian" oneway="1" width="2.00"/>
    <type id="highway.step" priority="1" numLanes="1" speed="1.39" allow="pedestrian" oneway="1" width="2.00"/>
    <type id="highway.steps" priority="1" numLanes="1" speed="1.39" allow="pedestrian" oneway="1" width="2.00"/>
    <type id="highway.tertiary" priority="6" numLanes="1" speed="22.22" disallow="tram rail_urban rail rail_electric ship" oneway="0"/>
    <type id="highway.tertiary_link" priority="5" numLanes="1" speed="22.22" disallow="tram rail_urban rail rail_electric ship" oneway="0"/>
    <type id="highway.track" priority="1" numLanes="1" speed="5.56" disallow="tram rail_urban rail rail_electric ship" oneway="0"/>
    <type id="highway.trunk" priority="11" numLanes="2" speed="27.78" disallow="tram rail_urban rail rail_electric bicycle pedestrian ship" oneway="0"/>
    <type id="highway.trunk_link" priority="10" numLanes="1" speed="22.22" disallow="tram rail_urban rail rail_electric bicycle pedestrian ship" oneway="0"/>
    <type id="highway.unclassified" priority="5" numLanes="1" speed="13.89" disallow="tram rail_urban rail rail_electric ship" oneway="0"/>
    <type id="highway.unsurfaced" priority="1" numLanes="1" speed="8.33" disallow="tram rail_urban rail rail_electric ship" oneway="0"/>
    <type id="railway.light_rail" priority="15" numLanes="1" speed="27.78" allow="rail_urban" oneway="1"/>
    <type id="railway.preserved" priority="15" numLanes="1" speed="27.78" allow="rail" oneway="1"/>
    <type id="railway.rail" priority="15" numLanes="1" speed="83.33" allow="rail rail_electric" oneway="1"/>
    <type id="railway.subway" priority="15" numLanes="1" speed="27.78" allow="rail_urban" oneway="1"/>
    <type id="railway.tram" priority="15" numLanes="1" speed="13.89" allow="tram" oneway="1"/>

    <edge id=":1466688445_0" function="internal">
        <lane id=":1466688445_0_0" index="0" allow="delivery bicycle pedestrian" speed="5.56" length="9.79" shape="695.02,606.65 691.90,597.36"/>
    </edge>
    <edge id=":1466688445_1" function="internal">
        <lane id=":1466688445_1_0" index="0" allow="delivery bicycle pedestrian" speed="3.65" length="4.67" shape="695.02,606.65 695.35,605.24 695.96,604.59 696.85,604.68 698.02,605.53"/>
    </edge>
    <edge id=":1466688445_2" function="internal">
        <lane id=":1466688445_2_0" index="0" allow="delivery bicycle pedestrian" speed="5.56" length="9.62" shape="694.96,596.41 698.02,605.53"/>
    </edge>
    <edge id=":1466688445_3" function="internal">
        <lane id=":1466688445_3_0" index="0" allow="delivery bicycle pedestrian" speed="3.65" length="4.67" shape="694.96,596.41 694.55,597.79 693.91,598.41 693.03,598.27 691.90,597.36"/>
    </edge>
    <edge id=":1466688445_4" function="internal">
        <lane id=":1466688445_4_0" index="0" allow="delivery bicycle pedestrian" speed="4.75" length="5.51" shape="689.24,600.79 690.83,600.65 691.81,600.04 692.16,598.94 691.90,597.36"/>
    </edge>
    <edge id=":1466688445_5" function="internal">
        <lane id=":1466688445_5_0" index="0" allow="delivery bicycle pedestrian" speed="5.56" length="9.20" shape="689.06,603.98 692.83,604.26 695.58,604.61 697.31,605.03 698.02,605.53"/>
    </edge>
    <edge id=":1466688446_0" function="internal">
        <lane id=":1466688446_0_0" index="0" allow="delivery bicycle pedestrian" speed="5.56" length="6.16" shape="669.09,530.81 668.43,529.76 667.35,528.96 665.83,528.43 663.89,528.16"/>
    </edge>
    <edge id=":1466688446_1" function="internal">
        <lane id=":1466688446_1_0" index="0" allow="delivery bicycle pedestrian" speed="5.56" length="9.28" shape="669.09,530.81 668.18,528.22 667.70,526.39 667.43,524.52 667.11,521.78"/>
    </edge>
    <edge id=":1466688446_2" function="internal">
        <lane id=":1466688446_2_0" index="0" allow="delivery bicycle pedestrian" speed="3.65" length="4.67" shape="669.09,530.81 669.42,529.41 670.03,528.75 670.92,528.85 672.09,529.69"/>
    </edge>
    <edge id=":1466688446_3" function="internal">
        <lane id=":1466688446_3_0" index="0" allow="delivery bicycle pedestrian" speed="5.56" length="8.52" shape="670.29,521.40 670.57,523.91 670.82,525.63 671.25,527.31 672.09,529.69"/>
    </edge>
    <edge id=":1466688446_4" function="internal">
        <lane id=":1466688446_4_0" index="0" allow="delivery bicycle pedestrian" speed="5.56" length="8.31" shape="670.29,521.40 670.08,523.12 668.98,524.29 666.99,524.90 664.10,524.96"/>
    </edge>
    <edge id=":1466688446_5" function="internal">
        <lane id=":1466688446_5_0" index="0" allow="delivery bicycle pedestrian" speed="3.65" length="4.67" shape="670.29,521.40 669.64,522.69 668.89,523.18 668.05,522.88 667.11,521.78"/>
    </edge>
    <edge id=":1703875282_0" function="internal">
        <lane id=":1703875282_0_0" index="0" disallow="tram rail_urban rail rail_electric ship" speed="5.64" length="7.03" shape="1343.17,604.35 1343.26,606.31 1343.96,607.70 1345.29,608.53 1347.22,608.80"/>
    </edge>
    <edge id=":1703875282_1" function="internal">
        <lane id=":1703875282_1_0" index="0" allow="delivery bicycle pedestrian" speed="3.65" length="4.67" shape="1343.17,604.35 1342.25,605.47 1341.42,605.79 1340.66,605.32 1339.98,604.04"/>
    </edge>
    <edge id=":1703875282_2" function="internal">
        <lane id=":1703875282_2_0" index="0" allow="delivery bicycle pedestrian" speed="6.48" length="8.56" shape="1333.83,608.54 1336.35,608.35 1338.22,607.53 1339.42,606.10 1339.98,604.04"/>
    </edge>
    <edge id=":1703875282_3" function="internal">
        <lane id=":1703875282_3_0" index="0" disallow="tram rail_urban rail rail_electric ship" speed="27.78" length="13.46" shape="1333.83,608.54 1347.22,608.80"/>
        <lane id=":1703875282_3_1" index="1" disallow="tram rail_urban rail rail_electric ship" speed="27.78" length="13.46" shape="1333.71,611.74 1347.24,612.00"/>
    </edge>
    <edge id=":1703875282_5" function="internal">
        <lane id=":1703875282_5_0" index="0" allow="delivery bicycle pedestrian" speed="9.72" length="12.95" shape="1336.86,616.56 1338.05,613.34 1338.92,610.42 1339.55,607.44 1339.98,604.04"/>
    </edge>
    <edge id=":1703875282_6" function="internal">
        <lane id=":1703875282_6_0" index="0" disallow="tram rail_urban rail rail_electric ship" speed="8.67" length="12.00" shape="1336.86,616.56 1338.17,614.58 1340.34,613.16 1343.36,612.30 1347.24,612.00"/>
    </edge>
    <edge id=":1703875283_0" function="internal">
        <lane id=":1703875283_0_0" index="0" allow="delivery bicycle pedestrian" speed="5.56" length="6.20" shape="563.79,677.33 557.60,676.98"/>
        <lane id=":1703875283_0_1" index="1" allow="delivery bicycle pedestrian" speed="5.56" length="6.20" shape="563.97,674.14 557.78,673.78"/>
    </edge>
    <edge id=":1703875283_2" function="internal">
        <lane id=":1703875283_2_0" index="0" allow="delivery bicycle pedestrian" speed="5.02" length="5.02" shape="561.03,670.84 560.78,672.19 560.15,673.14 559.16,673.67 557.78,673.78"/>
    </edge>
    <edge id=":1703875322_0" function="internal">
        <lane id=":1703875322_0_0" index="0" allow="delivery bicycle pedestrian" speed="5.02" length="5.02" shape="561.01,593.54 562.39,593.42 563.38,592.88 564.00,591.93 564.24,590.57"/>
    </edge>
    <edge id=":1703875322_1" function="internal">
        <lane id=":1703875322_1_0" index="0" allow="delivery bicycle pedestrian" speed="5.56" length="6.31" shape="561.01,593.54 567.33,593.88"/>
        <lane id=":1703875322_1_1" index="1" allow="delivery bicycle pedestrian" speed="5.56" length="6.31" shape="560.85,596.74 567.14,597.08"/>
    </edge>
    <edge id=":1703875322_3" function="internal">
        <lane id=":1703875322_3_0" index="0" allow="delivery bicycle pedestrian" speed="5.10" length="5.10" shape="560.85,596.74 562.23,597.00 563.20,597.64 563.75,598.65 563.90,600.02"/>
    </edge>
    <edge id=":1703875347_0" function="internal">
        <lane id=":1703875347_0_0" index="0" allow="delivery bicycle pedestrian" speed="5.56" length="6.20" shape="569.50,521.96 563.31,521.55"/>
        <lane id=":1703875347_0_1" index="1" allow="delivery bicycle pedestrian" speed="5.56" length="6.20" shape="569.71,518.76 563.52,518.36"/>
    </edge>
    <edge id=":1703875347_2" function="internal">
        <lane id=":1703875347_2_0" index="0" allow="delivery bicycle pedestrian" speed="5.12" length="5.05" shape="566.26,524.91 566.11,523.51 565.57,522.49 564.64,521.84 563.31,521.55"/>
    </edge>
    <edge id=":1703875349_0" function="internal">
        <lane id=":1703875349_0_0" index="0" disallow="tram rail_urban rail rail_electric ship" speed="6.29" length="8.34" shape="1273.29,601.54 1273.58,603.56 1274.60,605.03 1276.35,605.97 1278.84,606.35"/>
    </edge>
    <edge id=":1703875349_1" function="internal">
        <lane id=":1703875349_1_0" index="0" speed="9.72" length="12.94" shape="1273.29,601.54 1273.29,604.96 1273.54,607.99 1274.07,610.99 1274.87,614.33"/>
    </edge>
    <edge id=":1703875349_2" function="internal">
        <lane id=":1703875349_2_0" index="0" allow="delivery bicycle pedestrian" speed="3.65" length="4.67" shape="1273.29,601.54 1272.45,602.71 1271.64,603.08 1270.85,602.65 1270.10,601.43"/>
    </edge>
    <edge id=":1703875349_3" function="internal">
        <lane id=":1703875349_3_0" index="0" allow="delivery bicycle pedestrian" speed="5.96" length="7.40" shape="1265.35,605.86 1267.37,605.64 1268.83,604.83 1269.74,603.42 1270.10,601.43"/>
    </edge>
    <edge id=":1703875349_4" function="internal">
        <lane id=":1703875349_4_0" index="0" disallow="tram rail_urban rail rail_electric ship" speed="27.78" length="13.49" shape="1265.35,605.86 1278.84,606.35"/>
        <lane id=":1703875349_4_1" index="1" disallow="tram rail_urban rail rail_electric ship" speed="27.78" length="13.49" shape="1265.25,609.06 1278.71,609.55"/>
    </edge>
    <edge id=":1703875349_6" function="internal">
        <lane id=":1703875349_6_0" index="0" speed="8.23" length="11.77" shape="1265.25,609.06 1268.97,609.49 1271.81,610.51 1273.78,612.12 1274.87,614.33"/>
    </edge>
    <edge id=":1945549721_0" function="internal">
        <lane id=":1945549721_0_0" index="0" allow="delivery bicycle pedestrian" speed="3.65" length="4.67" shape="380.28,548.12 379.13,547.26 378.77,546.43 379.21,545.66 380.46,544.92"/>
    </edge>
    <edge id=":1945549771_0" function="internal">
        <lane id=":1945549771_0_0" index="0" allow="delivery bicycle pedestrian" speed="5.56" length="6.34" shape="568.38,558.13 562.05,557.79"/>
    </edge>
    <edge id=":1945549771_1" function="internal">
        <lane id=":1945549771_1_0" index="0" allow="delivery bicycle pedestrian" speed="5.56" length="7.86" shape="568.38,558.13 567.02,557.66 566.08,556.42 565.56,554.41 565.44,551.62"/>
    </edge>
    <edge id=":1945549771_2" function="internal">
        <lane id=":1945549771_2_0" index="0" allow="delivery bicycle pedestrian" speed="3.65" length="4.67" shape="568.38,558.13 567.23,557.26 566.87,556.44 567.31,555.67 568.55,554.93"/>
    </edge>
    <edge id=":1945549771_3" function="internal">
        <lane id=":1945549771_3_0" index="0" allow="delivery bicycle pedestrian" speed="5.02" length="5.03" shape="562.22,554.59 563.59,554.47 564.59,553.93 565.21,552.99 565.44,551.62"/>
    </edge>
    <edge id=":1945549771_4" function="internal">
        <lane id=":1945549771_4_0" index="0" allow="delivery bicycle pedestrian" speed="5.56" length="6.34" shape="562.22,554.59 568.55,554.93"/>
    </edge>
    <edge id=":1945549771_5" function="internal">
        <lane id=":1945549771_5_0" index="0" allow="delivery bicycle pedestrian" speed="3.65" length="4.67" shape="562.22,554.59 563.37,555.46 563.73,556.28 563.29,557.05 562.05,557.79"/>
    </edge>
    <edge id=":1945549771_6" function="internal">
        <lane id=":1945549771_6_0" index="0" allow="delivery bicycle pedestrian" speed="5.14" length="5.15" shape="565.15,561.09 565.00,559.71 564.42,558.70 563.44,558.06 562.05,557.79"/>
    </edge>
    <edge id=":1945549771_7" function="internal">
        <lane id=":1945549771_7_0" index="0" allow="delivery bicycle pedestrian" speed="5.56" length="9.47" shape="565.15,561.09 565.44,551.62"/>
    </edge>
    <edge id=":1945549771_8" function="internal">
        <lane id=":1945549771_8_0" index="0" allow="delivery bicycle pedestrian" speed="5.56" length="7.82" shape="565.15,561.09 565.44,558.33 566.10,556.39 567.14,555.25 568.55,554.93"/>
    </edge>
    <edge id=":1945549773_0" function="internal">
        <lane id=":1945549773_0_0" index="0" allow="delivery bicycle pedestrian" speed="5.56" length="7.03" shape="682.29,566.64 681.61,565.53 680.38,564.70 678.59,564.15 676.24,563.87"/>
    </edge>
    <edge id=":1945549773_1" function="internal">
        <lane id=":1945549773_1_0" index="0" allow="delivery bicycle pedestrian" speed="5.56" length="10.02" shape="682.29,566.64 678.96,557.19"/>
    </edge>
    <edge id=":1945549773_2" function="internal">
        <lane id=":1945549773_2_0" index="0" allow="delivery bicycle pedestrian" speed="3.65" length="4.67" shape="682.29,566.64 682.69,565.26 683.33,564.64 684.22,564.78 685.34,565.68"/>
    </edge>
    <edge id=":1945549773_3" function="internal">
        <lane id=":1945549773_3_0" index="0" allow="delivery bicycle pedestrian" speed="5.56" length="10.19" shape="681.96,556.07 685.34,565.68"/>
    </edge>
    <edge id=":1945549773_4" function="internal">
        <lane id=":1945549773_4_0" index="0" allow="delivery bicycle pedestrian" speed="5.56" length="12.53" shape="681.96,556.07 682.76,559.66 682.08,562.15 679.90,563.56 676.24,563.87"/>
    </edge>
    <edge id=":1945549773_5" function="internal">
        <lane id=":1945549773_5_0" index="0" allow="delivery bicycle pedestrian" speed="3.65" length="4.67" shape="681.96,556.07 681.63,557.47 681.02,558.13 680.13,558.03 678.96,557.19"/>
    </edge>
    <edge id=":1945549773_6" function="internal">
        <lane id=":1945549773_6_0" index="0" allow="delivery bicycle pedestrian" speed="4.72" length="5.60" shape="676.41,560.67 678.04,560.53 679.02,559.91 679.32,558.79 678.96,557.19"/>
    </edge>
    <edge id=":1945549773_7" function="internal">
        <lane id=":1945549773_7_0" index="0" allow="delivery bicycle pedestrian" speed="5.56" length="10.91" shape="676.41,560.67 679.77,561.14 682.38,562.13 684.24,563.64 685.34,565.68"/>
    </edge>
    <edge id=":1945549773_8" function="internal">
        <lane id=":1945549773_8_0" index="0" allow="delivery bicycle pedestrian" speed="3.65" length="4.67" shape="676.41,560.67 677.56,561.54 677.92,562.36 677.48,563.13 676.24,563.87"/>
    </edge>
    <edge id=":1947047908_0" function="internal">
        <lane id=":1947047908_0_0" index="0" allow="delivery bicycle pedestrian" speed="5.56" length="10.74" shape="751.99,754.11 752.78,757.09 753.05,759.39 753.41,761.65 754.47,764.51"/>
    </edge>
    <edge id=":1947047908_1" function="internal">
        <lane id=":1947047908_1_0" index="0" allow="delivery bicycle pedestrian" speed="3.65" length="4.67" shape="751.99,754.11 751.64,755.51 751.02,756.15 750.13,756.05 748.98,755.18"/>
    </edge>
    <edge id=":1947047908_2" function="internal">
        <lane id=":1947047908_2_0" index="0" allow="delivery bicycle pedestrian" speed="4.72" length="5.59" shape="746.36,758.62 748.00,758.51 748.98,757.90 749.31,756.79 748.98,755.18"/>
    </edge>
    <edge id=":1947047908_3" function="internal">
        <lane id=":1947047908_3_0" index="0" allow="delivery bicycle pedestrian" speed="5.56" length="9.02" shape="746.14,761.82 749.39,762.17 751.86,762.74 753.56,763.52 754.47,764.51"/>
    </edge>
    <edge id=":2676702784_0" function="internal">
        <lane id=":2676702784_0_0" index="0" disallow="tram rail_urban rail rail_electric ship" speed="27.78" length="9.34" shape="1875.04,648.31 1884.33,648.93"/>
        <lane id=":2676702784_0_1" index="1" disallow="tram rail_urban rail rail_electric ship" speed="27.78" length="9.34" shape="1874.80,651.50 1884.15,652.13"/>
    </edge>
    <edge id=":2676702784_2" function="internal">
        <lane id=":2676702784_2_0" index="0" allow="delivery bicycle pedestrian" speed="6.13" length="7.75" shape="1874.80,651.50 1877.52,651.90 1879.44,652.63 1880.56,653.68 1880.88,655.05"/>
    </edge>
    <edge id=":2676702784_3" function="internal">
        <lane id=":2676702784_3_0" index="0" disallow="tram rail_urban rail rail_electric ship" speed="6.08" length="7.77" shape="1877.68,654.88 1878.15,653.54 1879.38,652.64 1881.38,652.16 1884.15,652.13"/>
    </edge>
    <edge id=":2676702784_4" function="internal">
        <lane id=":2676702784_4_0" index="0" allow="delivery bicycle pedestrian" speed="3.65" length="4.67" shape="1877.68,654.88 1878.55,653.73 1879.37,653.37 1880.14,653.81 1880.88,655.05"/>
    </edge>
    <edge id=":2676702790_0" function="internal">
        <lane id=":2676702790_0_0" index="0" allow="delivery bicycle pedestrian" speed="3.65" length="4.67" shape="1888.28,911.31 1887.67,912.61 1886.94,913.13 1886.09,912.86 1885.12,911.79"/>
    </edge>
    <edge id=":276683038_0" function="internal">
        <lane id=":276683038_0_0" index="0" disallow="tram rail_urban rail rail_electric ship" speed="6.46" length="9.03" shape="684.82,193.18 682.37,192.78 680.39,193.26 678.89,194.64 677.87,196.90"/>
    </edge>
    <edge id=":276683038_1" function="internal">
        <lane id=":276683038_1_0" index="0" disallow="tram rail_urban rail rail_electric ship" speed="13.89" length="14.40" shape="684.82,193.18 671.08,188.86"/>
        <lane id=":276683038_1_1" index="1" disallow="tram rail_urban rail rail_electric ship" speed="13.89" length="14.40" shape="685.77,190.12 672.04,185.81"/>
    </edge>
    <edge id=":276683038_3" function="internal">
        <lane id=":276683038_3_0" index="0" disallow="tram rail_urban rail rail_electric ship" speed="3.65" length="2.34" shape="685.77,190.12 684.87,189.00 684.73,188.12"/>
    </edge>
    <edge id=":276683038_11" function="internal">
        <lane id=":276683038_11_0" index="0" disallow="tram rail_urban rail rail_electric ship" speed="3.65" length="2.34" shape="684.73,188.12 685.35,187.47 686.73,187.07"/>
    </edge>
    <edge id=":276683038_4" function="internal">
        <lane id=":276683038_4_0" index="0" disallow="tram rail_urban rail rail_electric ship" speed="13.89" length="14.39" shape="673.96,179.70 687.69,184.01"/>
        <lane id=":276683038_4_1" index="1" disallow="tram rail_urban rail rail_electric ship" speed="13.89" length="14.39" shape="673.00,182.75 686.73,187.07"/>
    </edge>
    <edge id=":276683038_6" function="internal">
        <lane id=":276683038_6_0" index="0" disallow="tram rail_urban rail rail_electric ship" speed="8.74" length="5.19" shape="673.00,182.75 676.39,184.61 677.12,185.72"/>
    </edge>
    <edge id=":276683038_7" function="internal">
        <lane id=":276683038_7_0" index="0" disallow="tram rail_urban rail rail_electric ship" speed="3.65" length="2.34" shape="673.00,182.75 673.91,183.88 674.05,184.76"/>
    </edge>
    <edge id=":276683038_12" function="internal">
        <lane id=":276683038_12_0" index="0" disallow="tram rail_urban rail rail_electric ship" speed="8.74" length="11.65" shape="677.12,185.72 678.33,187.59 678.82,191.68 677.87,196.90"/>
    </edge>
    <edge id=":276683038_13" function="internal">
        <lane id=":276683038_13_0" index="0" disallow="tram rail_urban rail rail_electric ship" speed="3.65" length="2.34" shape="674.05,184.76 673.43,185.40 672.04,185.81"/>
    </edge>
    <edge id=":276683038_8" function="internal">
        <lane id=":276683038_8_0" index="0" disallow="tram rail_urban rail rail_electric ship" speed="6.60" length="9.15" shape="674.80,196.01 675.16,193.51 674.66,191.48 673.30,189.93 671.08,188.86"/>
    </edge>
    <edge id=":276683038_9" function="internal">
        <lane id=":276683038_9_0" index="0" disallow="tram rail_urban rail rail_electric ship" speed="8.63" length="16.97" shape="674.80,196.01 676.81,191.09 679.47,187.96 682.77,186.62 686.73,187.07"/>
    </edge>
    <edge id=":276683038_10" function="internal">
        <lane id=":276683038_10_0" index="0" disallow="tram rail_urban rail rail_electric ship" speed="3.65" length="4.67" shape="674.80,196.01 675.90,195.08 676.78,194.92 677.44,195.53 677.87,196.90"/>
    </edge>
    <edge id=":276683054_0" function="internal">
        <lane id=":276683054_0_0" index="0" allow="delivery bicycle pedestrian" speed="5.16" length="5.19" shape="1347.14,595.11 1345.78,595.22 1344.77,595.77 1344.09,596.77 1343.76,598.20"/>
    </edge>
    <edge id=":276683054_1" function="internal">
        <lane id=":276683054_1_0" index="0" disallow="tram rail_urban rail rail_electric ship" speed="27.78" length="9.52" shape="1347.14,595.11 1337.69,594.59"/>
        <lane id=":276683054_1_1" index="1" disallow="tram rail_urban rail rail_electric ship" speed="27.78" length="9.52" shape="1347.37,591.92 1337.81,591.39"/>
    </edge>
    <edge id=":276683054_3" function="internal">
        <lane id=":276683054_3_0" index="0" allow="delivery bicycle pedestrian" speed="7.43" length="8.21" shape="1347.37,591.92 1344.96,591.53 1343.05,590.72 1341.64,589.52 1340.74,587.91"/>
    </edge>
    <edge id=":276683054_4" function="internal">
        <lane id=":276683054_4_0" index="0" disallow="tram rail_urban rail rail_electric ship" speed="4.98" length="5.07" shape="1340.58,597.89 1340.51,596.50 1340.01,595.48 1339.07,594.84 1337.69,594.59"/>
    </edge>
    <edge id=":276683054_5" function="internal">
        <lane id=":276683054_5_0" index="0" allow="delivery bicycle pedestrian" speed="5.56" length="10.16" shape="1340.58,597.89 1341.04,594.90 1341.47,592.80 1341.49,590.75 1340.74,587.91"/>
    </edge>
    <edge id=":276683054_6" function="internal">
        <lane id=":276683054_6_0" index="0" allow="delivery bicycle pedestrian" speed="3.65" length="4.67" shape="1340.58,597.89 1341.49,596.78 1342.32,596.46 1343.08,596.93 1343.76,598.20"/>
    </edge>
    <edge id=":276683057_0" function="internal">
        <lane id=":276683057_0_0" index="0" allow="delivery bicycle pedestrian" speed="5.56" length="8.90" shape="1312.49,564.41 1309.91,563.92 1308.10,563.73 1306.29,563.81 1303.68,564.15"/>
    </edge>
    <edge id=":276683057_1" function="internal">
        <lane id=":276683057_1_0" index="0" allow="delivery bicycle pedestrian" speed="5.56" length="7.34" shape="1312.49,564.41 1309.89,563.74 1308.03,562.92 1306.92,561.97 1306.55,560.87"/>
    </edge>
    <edge id=":276683057_2" function="internal">
        <lane id=":276683057_2_0" index="0" allow="delivery bicycle pedestrian" speed="5.56" length="7.36" shape="1309.75,560.90 1309.37,562.01 1308.22,562.92 1306.33,563.63 1303.68,564.15"/>
    </edge>
    <edge id=":276683057_3" function="internal">
        <lane id=":276683057_3_0" index="0" allow="delivery bicycle pedestrian" speed="3.65" length="4.67" shape="1309.75,560.90 1308.94,562.10 1308.14,562.49 1307.34,562.08 1306.55,560.87"/>
    </edge>
    <edge id=":276683058_0" function="internal">
        <lane id=":276683058_0_0" index="0" allow="delivery bicycle pedestrian" speed="5.04" length="5.00" shape="1346.18,401.06 1344.83,400.85 1343.74,401.12 1342.89,401.88 1342.31,403.11"/>
    </edge>
    <edge id=":276683058_1" function="internal">
        <lane id=":276683058_1_0" index="0" disallow="tram rail_urban rail rail_electric ship" speed="13.89" length="9.37" shape="1346.18,401.06 1337.22,398.27"/>
        <lane id=":276683058_1_1" index="1" disallow="tram rail_urban rail rail_electric ship" speed="13.89" length="9.37" shape="1347.12,398.00 1338.18,395.22"/>
    </edge>
    <edge id=":276683058_3" function="internal">
        <lane id=":276683058_3_0" index="0" disallow="tram rail_urban rail rail_electric ship" speed="3.65" length="2.34" shape="1347.12,398.00 1346.21,396.88 1346.06,396.00"/>
    </edge>
    <edge id=":276683058_11" function="internal">
        <lane id=":276683058_11_0" index="0" disallow="tram rail_urban rail rail_electric ship" speed="3.65" length="2.34" shape="1346.06,396.00 1346.68,395.35 1348.06,394.94"/>
    </edge>
    <edge id=":276683058_4" function="internal">
        <lane id=":276683058_4_0" index="0" disallow="tram rail_urban rail rail_electric ship" speed="13.89" length="9.32" shape="1340.11,389.12 1348.99,391.88"/>
        <lane id=":276683058_4_1" index="1" disallow="tram rail_urban rail rail_electric ship" speed="13.89" length="9.32" shape="1339.15,392.17 1348.06,394.94"/>
    </edge>
    <edge id=":276683058_6" function="internal">
        <lane id=":276683058_6_0" index="0" allow="delivery bicycle pedestrian" speed="7.65" length="4.28" shape="1339.15,392.17 1341.58,393.56 1342.33,394.83"/>
    </edge>
    <edge id=":276683058_7" function="internal">
        <lane id=":276683058_7_0" index="0" disallow="tram rail_urban rail rail_electric ship" speed="3.65" length="2.34" shape="1339.15,392.17 1340.05,393.30 1340.19,394.18"/>
    </edge>
    <edge id=":276683058_12" function="internal">
        <lane id=":276683058_12_0" index="0" allow="delivery bicycle pedestrian" speed="7.65" length="8.54" shape="1342.33,394.83 1342.92,395.85 1343.16,399.03 1342.31,403.11"/>
    </edge>
    <edge id=":276683058_13" function="internal">
        <lane id=":276683058_13_0" index="0" disallow="tram rail_urban rail rail_electric ship" speed="3.65" length="2.34" shape="1340.19,394.18 1339.57,394.82 1338.18,395.22"/>
    </edge>
    <edge id=":276683058_8" function="internal">
        <lane id=":276683058_8_0" index="0" disallow="tram rail_urban rail rail_electric ship" speed="5.05" length="5.00" shape="1339.25,402.17 1339.47,400.81 1339.20,399.71 1338.45,398.87 1337.22,398.27"/>
    </edge>
    <edge id=":276683058_9" function="internal">
        <lane id=":276683058_9_0" index="0" disallow="tram rail_urban rail rail_electric ship" speed="7.64" length="12.83" shape="1339.25,402.17 1340.85,398.32 1342.85,395.83 1345.26,394.70 1348.06,394.94"/>
    </edge>
    <edge id=":276683058_10" function="internal">
        <lane id=":276683058_10_0" index="0" allow="delivery bicycle pedestrian" speed="3.65" length="4.67" shape="1339.25,402.17 1340.37,401.26 1341.25,401.11 1341.90,401.73 1342.31,403.11"/>